DATABASE /home/jalil/phreeqc-3.7.3-15968/database/pitzer_template_populated.dat
SOLUTION 1
	temp	25.0
	pH	7.0
	units	mol/kgw
	Na	1
	Cl	1
	Ca	0
	Mg	0
	K	0
	S(6)	0
	C 0 as HCO3
GAS_PHASE 1
	-fixed_pressure
	-pressure 9.86923
	-volume 1.0
	 CO2(g) 9.3757685
	H2O(g) 0.4934615
SELECTED_OUTPUT
	-file out.tsv
	-totals C(4)
	-solution True
	-gases CO2(g)
	-saturation_indices CO2(g)
	-activities   Na+ K+ Cl- SO4+2 Ca+2 Mg+2 HCO3- CO3-2
	-ionic_strength
END